Version 4
SHEET 1 1240 980
WIRE -656 64 -816 64
WIRE -352 64 -656 64
WIRE 400 64 -352 64
WIRE 528 64 448 64
WIRE 640 64 592 64
WIRE 720 64 640 64
WIRE 896 64 800 64
WIRE 1024 64 896 64
WIRE 1136 64 1024 64
WIRE 640 80 640 64
WIRE 896 80 896 64
WIRE 1024 80 1024 64
WIRE 400 96 400 64
WIRE 448 96 448 64
WIRE -656 144 -656 64
WIRE -816 160 -816 64
WIRE 448 208 448 176
WIRE 640 208 640 144
WIRE 640 208 448 208
WIRE 768 208 640 208
WIRE 896 208 896 144
WIRE 896 208 768 208
WIRE 1024 208 1024 160
WIRE 1024 208 896 208
WIRE 768 240 768 208
WIRE 1136 272 1136 64
WIRE -816 288 -816 240
WIRE 400 320 400 176
WIRE -352 336 -352 64
WIRE -656 368 -656 224
WIRE -656 368 -736 368
WIRE -656 400 -656 368
WIRE -512 400 -656 400
WIRE -144 400 -192 400
WIRE -32 400 -80 400
WIRE 352 400 112 400
WIRE 368 400 352 400
WIRE -512 496 -976 496
WIRE 112 496 112 400
WIRE 112 496 -192 496
WIRE -512 592 -832 592
WIRE 400 592 400 416
WIRE 400 592 -192 592
WIRE 400 656 400 592
WIRE -832 672 -832 592
WIRE -976 688 -976 496
WIRE -512 688 -656 688
WIRE 1136 688 1136 352
WIRE 1136 688 -192 688
WIRE -656 720 -656 688
WIRE -656 720 -688 720
WIRE -608 720 -656 720
WIRE -608 736 -608 720
WIRE 1136 736 1136 688
WIRE -688 800 -688 720
WIRE -608 848 -608 816
WIRE 400 848 400 736
WIRE -352 864 -352 752
WIRE 1136 864 1136 816
WIRE -688 928 -688 864
WIRE -656 928 -688 928
WIRE -608 928 -608 912
WIRE -608 928 -656 928
WIRE -976 944 -976 752
WIRE -832 944 -832 752
WIRE -832 944 -976 944
WIRE -656 944 -656 928
WIRE -656 944 -832 944
WIRE -656 960 -656 944
FLAG -816 288 0
FLAG 768 240 0
FLAG -352 864 0
FLAG -656 960 0
FLAG 1136 864 0
FLAG 400 848 0
FLAG -736 448 0
FLAG -32 400 0
SYMBOL voltage -816 144 R0
WINDOW 123 0 0 Left 0
WINDOW 39 0 0 Left 0
SYMATTR InstName V1
SYMATTR Value 30
SYMBOL ind2 384 192 M180
WINDOW 0 -7 70 Right 2
WINDOW 3 -4 35 Right 2
SYMATTR InstName L1
SYMATTR Value 300µ
SYMATTR Type ind
SYMATTR SpiceLine Rser=23m Cpar=1n
SYMBOL ind2 464 192 R180
WINDOW 0 -7 71 Right 2
WINDOW 3 -5 38 Right 2
SYMATTR InstName L2
SYMATTR Value 1875µ
SYMATTR Type ind
SYMATTR SpiceLine Rser=135m
SYMBOL nmos 352 320 R0
WINDOW 3 59 71 Left 2
SYMATTR Value BSC320N20NS3
SYMATTR InstName Q1
SYMBOL diode 528 80 R270
WINDOW 0 32 32 VTop 2
WINDOW 3 0 32 VBottom 2
SYMATTR InstName D1
SYMBOL diode 656 144 R180
WINDOW 0 24 64 Left 2
WINDOW 3 24 0 Left 2
SYMATTR InstName D2
SYMBOL ind 816 48 R90
WINDOW 0 5 56 VBottom 2
WINDOW 3 32 56 VTop 2
SYMATTR InstName L3
SYMATTR Value 470µ
SYMBOL res 1008 64 R0
SYMATTR InstName R2
SYMATTR Value 4.68
SYMBOL cap 880 80 R0
SYMATTR InstName C1
SYMATTR Value 100µ
SYMBOL PowerProducts\\LT3758A -352 544 R0
SYMATTR InstName U1
SYMBOL res -624 720 R0
SYMATTR InstName R3
SYMATTR Value 16.2k
SYMBOL cap -624 848 R0
SYMATTR InstName C2
SYMATTR Value 10n
SYMBOL cap -704 800 R0
SYMATTR InstName C3
SYMATTR Value 100p
SYMBOL res -848 656 R0
SYMATTR InstName R4
SYMATTR Value 49.9k
SYMBOL cap -992 688 R0
SYMATTR InstName C4
SYMATTR Value 0.1µ
SYMBOL res 1120 256 R0
SYMATTR InstName R5
SYMATTR Value 83.75k
SYMBOL res 1120 720 R0
SYMATTR InstName R6
SYMATTR Value 10k
SYMBOL res 384 640 R0
SYMATTR InstName R1
SYMATTR Value 0.01
SYMBOL res -752 352 R0
SYMATTR InstName R8
SYMATTR Value 32.4k
SYMBOL res -672 128 R0
SYMATTR InstName R7
SYMATTR Value 200k
SYMBOL cap -80 384 R90
WINDOW 0 0 32 VBottom 2
WINDOW 3 32 32 VTop 2
SYMATTR InstName C5
SYMATTR Value 4.7µ
TEXT 424 64 Bottom 2 !K1 L1 L2 1
TEXT -34 568 Left 2 !.tran 10m
