Version 4
SHEET 1 1512 1940
WIRE -1760 1232 -1920 1232
WIRE -1648 1232 -1680 1232
WIRE -1504 1232 -1568 1232
WIRE -1456 1232 -1504 1232
WIRE -1200 1232 -1296 1232
WIRE -1120 1232 -1200 1232
WIRE -1008 1232 -1040 1232
WIRE -832 1232 -832 1216
WIRE -832 1232 -928 1232
WIRE -1920 1248 -1920 1232
WIRE -832 1248 -832 1232
WIRE -1376 1280 -1408 1280
WIRE -1344 1280 -1376 1280
WIRE -1200 1328 -1200 1312
WIRE -1200 1328 -1296 1328
WIRE -832 1328 -1200 1328
WIRE -752 1328 -832 1328
WIRE -1920 1360 -1920 1328
WIRE -1664 1360 -1920 1360
WIRE -1584 1360 -1664 1360
WIRE -1456 1360 -1456 1328
WIRE -1456 1360 -1584 1360
WIRE -1664 1440 -1664 1360
WIRE -1504 1504 -1504 1232
WIRE -1456 1504 -1504 1504
WIRE -1200 1504 -1296 1504
WIRE -1120 1504 -1200 1504
WIRE -1008 1504 -1040 1504
WIRE -832 1504 -928 1504
WIRE -1376 1552 -1408 1552
WIRE -1344 1552 -1376 1552
WIRE -1584 1600 -1584 1360
WIRE -1456 1600 -1584 1600
WIRE -1200 1600 -1200 1584
WIRE -1200 1600 -1296 1600
WIRE -832 1600 -832 1584
WIRE -832 1600 -1200 1600
WIRE -784 1600 -832 1600
WIRE -752 1600 -752 1504
WIRE -752 1600 -784 1600
FLAG -1664 1440 0
FLAG -784 1600 0
FLAG -752 1328 0
SYMBOL Winding_RC -1408 1248 R0
SYMATTR InstName U7
SYMATTR SpiceLine N=112
SYMBOL Winding_RC -1344 1248 M0
SYMATTR SpiceLine N=902
SYMATTR InstName U8
SYMBOL Core -1376 1232 R0
WINDOW 38 -8 -91 Left 2
WINDOW 123 -66 -34 Left 2
WINDOW 3 -76 -61 Left 2
SYMATTR Value2 A=0.7559 Lm=6.738 Lg=0
SYMATTR Value Hc=5.7 Bs=1897.508m Br=1664m
SYMATTR InstName U9
SYMBOL res -1664 1216 R90
WINDOW 0 0 56 VBottom 2
WINDOW 3 32 56 VTop 2
SYMATTR InstName R1
SYMATTR Value 62.658m
SYMBOL ind -1664 1248 R270
WINDOW 0 32 56 VTop 2
WINDOW 3 5 56 VBottom 2
SYMATTR InstName L1
SYMATTR Value 14.955m
SYMBOL res -1216 1216 R0
SYMATTR InstName R2
SYMATTR Value 1543342
SYMBOL res -1024 1216 R90
WINDOW 0 0 56 VBottom 2
WINDOW 3 32 56 VTop 2
SYMATTR InstName R3
SYMATTR Value 491.993m
SYMBOL ind -1024 1248 R270
WINDOW 0 32 56 VTop 2
WINDOW 3 5 56 VBottom 2
SYMATTR InstName L2
SYMATTR Value 341.085m
SYMBOL Core -1376 1504 R0
WINDOW 38 -8 -91 Left 2
WINDOW 123 -66 -34 Left 2
WINDOW 3 -76 -61 Left 2
SYMATTR Value2 A=0.7559 Lm=6.738 Lg=0
SYMATTR Value Hc=5.7 Bs=1866m Br=1664m
SYMATTR InstName U1
SYMBOL Winding_RC -1408 1520 R0
SYMATTR InstName U2
SYMATTR SpiceLine N=112
SYMBOL Winding_RC -1344 1520 M0
SYMATTR SpiceLine N=902
SYMATTR InstName U3
SYMBOL res -1216 1488 R0
SYMATTR InstName R4
SYMATTR Value 1543342
SYMBOL res -1024 1488 R90
WINDOW 0 0 56 VBottom 2
WINDOW 3 32 56 VTop 2
SYMATTR InstName R5
SYMATTR Value 491.993m
SYMBOL ind -1024 1520 R270
WINDOW 0 32 56 VTop 2
WINDOW 3 5 56 VBottom 2
SYMATTR InstName L3
SYMATTR Value 341.085m
SYMBOL voltage -1920 1232 R0
WINDOW 123 0 0 Left 0
WINDOW 39 0 0 Left 0
SYMATTR InstName V1
SYMATTR Value PULSE(0 10 0 0 0 0.015 0.02)
SYMBOL res -848 1232 R0
SYMATTR InstName R6
SYMATTR Value 5
SYMBOL res -848 1488 R0
SYMATTR InstName R7
SYMATTR Value 5
TEXT -2448 1536 Left 2 !.tran 0 300 0 5u
TEXT -752 1192 Left 2 !; Power Factor Calculation:\n.meas start PARAM 299960ms\n.meas end PARAM 300000ms\n.meas Irms RMS Ix(U2:1) from start to end
